Compound 1
Actelion Java MolfileCreator 2.0

  0  0  0  0  0  0              0 V3000
M  V30 BEGIN CTAB
M  V30 COUNTS 36 38 0 0 0
M  V30 BEGIN ATOM
M  V30 1 O 11.6913 -3.0 0.0 0
M  V30 2 C 12.9903 -2.25 0.0 0
M  V30 3 O 14.2894 -2.9999 0.0 0
M  V30 4 N 12.9903 -0.75 0.0 0
M  V30 5 C 14.2894 -4.5 0.0 0
M  V30 6 C 11.6913 0.0 0.0 0
M  V30 7 C 15.5884 -5.2499 0.0 0
M  V30 8 C 12.9903 -5.25 0.0 0
M  V30 9 C 11.6913 1.5 0.0 0
M  V30 10 C 10.3923 -0.75 0.0 0
M  V30 11 C 15.5884 -6.7499 0.0 0
M  V30 12 C 12.9903 -6.75 0.0 0
M  V30 13 C 12.9903 2.25 0.0 0
M  V30 14 C 9.0932 0.0 0.0 0
M  V30 15 C 14.2894 -7.4999 0.0 0
M  V30 16 C 12.9903 3.75 0.0 0
M  V30 17 C 14.2894 1.5 0.0 0
M  V30 18 O 9.0932 1.5 0.0 0
M  V30 19 C 7.7942 -0.75 0.0 0
M  V30 20 C 14.2894 4.5 0.0 0
M  V30 21 C 15.5884 2.25 0.0 0
M  V30 22 C 7.7942 -2.25 0.0 0
M  V30 23 C 6.4951 0.0 0.0 0
M  V30 24 C 15.5884 3.75 0.0 0
M  V30 25 C 6.4951 -2.9999 0.0 0
M  V30 26 C 9.0932 -3.0 0.0 0
M  V30 27 N 5.1961 -0.75 0.0 0
M  V30 28 C 6.4951 -4.4999 0.0 0
M  V30 29 C 9.0932 -4.5 0.0 0
M  V30 30 C 3.8971 0.0 0.0 0
M  V30 31 C 7.7942 -5.25 0.0 0
M  V30 32 O 3.8971 1.5 0.0 0
M  V30 33 C 2.598 -0.75 0.0 0
M  V30 34 C 1.299 0.0 0.0 0
M  V30 35 O 1.299 1.5 0.0 0
M  V30 36 O 0.0 -0.75 0.0 0
M  V30 END ATOM
M  V30 BEGIN BOND
M  V30 1 2 1 2
M  V30 2 1 2 3
M  V30 3 1 2 4
M  V30 4 1 3 5
M  V30 5 1 4 6
M  V30 6 1 5 7
M  V30 7 1 5 8
M  V30 8 1 6 9
M  V30 9 1 6 10
M  V30 10 1 7 11
M  V30 11 1 8 12
M  V30 12 1 9 13
M  V30 13 1 10 14
M  V30 14 1 11 15
M  V30 15 2 13 16
M  V30 16 1 13 17
M  V30 17 1 14 18
M  V30 18 1 14 19
M  V30 19 1 16 20
M  V30 20 2 17 21
M  V30 21 1 19 22
M  V30 22 1 19 23
M  V30 23 2 20 24
M  V30 24 2 22 25
M  V30 25 1 22 26
M  V30 26 1 23 27
M  V30 27 1 25 28
M  V30 28 2 26 29
M  V30 29 1 27 30
M  V30 30 2 28 31
M  V30 31 2 30 32
M  V30 32 1 30 33
M  V30 33 1 33 34
M  V30 34 2 34 35
M  V30 35 1 34 36
M  V30 36 1 12 15
M  V30 37 1 21 24
M  V30 38 1 29 31
M  V30 END BOND
M  V30 END CTAB
M  END
>  <Name>
Compound1

>  <Mol>
O=C(O)CC(=O)NCC(c1ccccc1)C(O)CC(Cc1ccccc1)NC(=O)OC1CCCCC1

$$$$
Compound 2
Actelion Java MolfileCreator 2.0

  0  0  0  0  0  0              0 V3000
M  V30 BEGIN CTAB
M  V30 COUNTS 78 84 0 0 0
M  V30 BEGIN ATOM
M  V30 1 O 17.3205 -0.5 0.0 0
M  V30 2 C 16.4544 0.0 0.0 0
M  V30 3 N 15.5884 -0.5 0.0 0
M  V30 4 C 16.4544 1.0 0.0 0
M  V30 5 C 14.7224 0.0 0.0 0
M  V30 6 C 17.2634 1.5877 0.0 0
M  V30 7 C 15.6454 1.5877 0.0 0
M  V30 8 C 13.8564 -0.5 0.0 0
M  V30 9 C 14.7224 0.9999 0.0 0
M  V30 10 C 18.2145 1.2787 0.0 0
M  V30 11 C 16.9544 2.5388 0.0 0
M  V30 12 C 15.9544 2.5388 0.0 0
M  V30 13 O 13.8564 -1.5 0.0 0
M  V30 14 N 12.9903 0.0 0.0 0
M  V30 15 C 13.8564 1.5 0.0 0
M  V30 16 O 18.9577 1.9478 0.0 0
M  V30 17 N 18.4224 0.3006 0.0 0
M  V30 18 C 12.1243 -0.5 0.0 0
M  V30 19 C 13.8564 2.5 0.0 0
M  V30 20 C 12.9903 1.0 0.0 0
M  V30 21 C 19.3735 -0.0083 0.0 0
M  V30 22 C 11.2583 0.0 0.0 0
M  V30 23 C 12.1243 -1.4999 0.0 0
M  V30 24 C 12.9903 3.0 0.0 0
M  V30 25 C 12.1243 1.5 0.0 0
M  V30 26 O 11.2583 1.0 0.0 0
M  V30 27 N 10.3923 -0.5 0.0 0
M  V30 28 C 11.2583 -1.9999 0.0 0
M  V30 29 C 12.1243 2.5 0.0 0
M  V30 30 C 9.5262 0.0 0.0 0
M  V30 31 C 11.2583 -2.9999 0.0 0
M  V30 32 C 10.3923 -1.4999 0.0 0
M  V30 33 C 8.6602 -0.5 0.0 0
M  V30 34 C 9.5262 1.0 0.0 0
M  V30 35 C 10.3923 -3.4999 0.0 0
M  V30 36 C 9.5262 -1.9999 0.0 0
M  V30 37 O 8.6602 -1.4999 0.0 0
M  V30 38 N 7.7942 0.0 0.0 0
M  V30 39 C 8.6602 1.5 0.0 0
M  V30 40 C 9.5262 -2.9999 0.0 0
M  V30 41 C 6.9282 -0.5 0.0 0
M  V30 42 C 8.6602 2.5 0.0 0
M  V30 43 C 7.7942 1.0 0.0 0
M  V30 44 C 6.0621 0.0 0.0 0
M  V30 45 C 6.9282 -1.5 0.0 0
M  V30 46 C 7.7942 3.0 0.0 0
M  V30 47 C 6.9282 1.5 0.0 0
M  V30 48 O 6.0621 0.9999 0.0 0
M  V30 49 N 5.1961 -0.4999 0.0 0
M  V30 50 C 6.0621 -2.0 0.0 0
M  V30 51 C 6.9282 2.5 0.0 0
M  V30 52 C 4.3301 0.0 0.0 0
M  V30 53 C 6.0621 -3.0 0.0 0
M  V30 54 C 5.1961 -1.5 0.0 0
M  V30 55 C 3.4641 -0.4999 0.0 0
M  V30 56 C 4.3301 1.0 0.0 0
M  V30 57 C 5.1961 -3.5 0.0 0
M  V30 58 C 4.3301 -2.0 0.0 0
M  V30 59 O 3.4641 -1.4999 0.0 0
M  V30 60 N 2.598 0.0 0.0 0
M  V30 61 C 3.4641 1.5 0.0 0
M  V30 62 C 4.3301 -3.0 0.0 0
M  V30 63 C 1.732 -0.4999 0.0 0
M  V30 64 C 3.4641 2.4999 0.0 0
M  V30 65 C 2.598 1.0 0.0 0
M  V30 66 C 1.732 -1.5 0.0 0
M  V30 67 C 0.866 0.0 0.0 0
M  V30 68 C 2.598 3.0 0.0 0
M  V30 69 C 1.732 1.4999 0.0 0
M  V30 70 O 0.866 -1.9999 0.0 0
M  V30 71 O 2.598 -1.9999 0.0 0
M  V30 72 C 0.0 -0.5 0.0 0
M  V30 73 C 1.732 2.5 0.0 0
M  V30 74 C -0.866 0.0 0.0 0
M  V30 75 C 0.0 -1.4999 0.0 0
M  V30 76 C -1.732 -0.4999 0.0 0
M  V30 77 C -0.866 -1.9999 0.0 0
M  V30 78 C -1.732 -1.5 0.0 0
M  V30 END ATOM
M  V30 BEGIN BOND
M  V30 1 2 1 2
M  V30 2 1 2 3
M  V30 3 1 2 4
M  V30 4 1 3 5
M  V30 5 1 4 6
M  V30 6 1 4 7
M  V30 7 1 5 8
M  V30 8 1 5 9
M  V30 9 1 6 10
M  V30 10 1 6 11
M  V30 11 1 7 12
M  V30 12 2 8 13
M  V30 13 1 8 14
M  V30 14 1 9 15
M  V30 15 2 10 16
M  V30 16 1 10 17
M  V30 17 1 14 18
M  V30 18 2 15 19
M  V30 19 1 15 20
M  V30 20 1 17 21
M  V30 21 1 18 22
M  V30 22 1 18 23
M  V30 23 1 19 24
M  V30 24 2 20 25
M  V30 25 2 22 26
M  V30 26 1 22 27
M  V30 27 1 23 28
M  V30 28 2 24 29
M  V30 29 1 27 30
M  V30 30 2 28 31
M  V30 31 1 28 32
M  V30 32 1 30 33
M  V30 33 1 30 34
M  V30 34 1 31 35
M  V30 35 2 32 36
M  V30 36 2 33 37
M  V30 37 1 33 38
M  V30 38 1 34 39
M  V30 39 2 35 40
M  V30 40 1 38 41
M  V30 41 2 39 42
M  V30 42 1 39 43
M  V30 43 1 41 44
M  V30 44 1 41 45
M  V30 45 1 42 46
M  V30 46 2 43 47
M  V30 47 2 44 48
M  V30 48 1 44 49
M  V30 49 1 45 50
M  V30 50 2 46 51
M  V30 51 1 49 52
M  V30 52 2 50 53
M  V30 53 1 50 54
M  V30 54 1 52 55
M  V30 55 1 52 56
M  V30 56 1 53 57
M  V30 57 2 54 58
M  V30 58 2 55 59
M  V30 59 1 55 60
M  V30 60 1 56 61
M  V30 61 2 57 62
M  V30 62 1 60 63
M  V30 63 2 61 64
M  V30 64 1 61 65
M  V30 65 1 63 66
M  V30 66 1 63 67
M  V30 67 1 64 68
M  V30 68 2 65 69
M  V30 69 2 66 70
M  V30 70 1 66 71
M  V30 71 1 67 72
M  V30 72 2 68 73
M  V30 73 2 72 74
M  V30 74 1 72 75
M  V30 75 1 74 76
M  V30 76 2 75 77
M  V30 77 2 76 78
M  V30 78 1 11 12
M  V30 79 1 25 29
M  V30 80 1 36 40
M  V30 81 1 47 51
M  V30 82 1 58 62
M  V30 83 1 69 73
M  V30 84 1 77 78
M  V30 END BOND
M  V30 END CTAB
M  END
>  <Name>
Compound2

>  <Mol>
CNC(=O)C1CCCC1C(=O)NC(Cc1ccccc1)C(=O)NC(Cc1ccccc1)C(=O)NC(Cc1ccccc1)C(=O)NC(Cc1ccccc1)C(=O)NC(Cc1ccccc1)C(=O)NC(Cc1ccccc1)C(=O)O

$$$$
Compound 3
Actelion Java MolfileCreator 2.0

  0  0  0  0  0  0              0 V3000
M  V30 BEGIN CTAB
M  V30 COUNTS 60 64 0 0 0
M  V30 BEGIN ATOM
M  V30 1 O 15.802 -0.218 0.0 0
M  V30 2 C 17.2286 0.2454 0.0 0
M  V30 3 N 17.5404 1.7127 0.0 0
M  V30 4 C 18.3433 -0.7582 0.0 0
M  V30 5 C 18.967 2.1762 0.0 0
M  V30 6 C 18.1865 -2.2499 0.0 0
M  V30 7 C 19.8105 -0.4463 0.0 0
M  V30 8 C 19.4305 0.7496 0.0 0
M  V30 9 C 20.3936 2.6397 0.0 0
M  V30 10 C 18.5035 3.6028 0.0 0
M  V30 11 C 16.8874 -2.9999 0.0 0
M  V30 12 C 19.5568 -2.8601 0.0 0
M  V30 13 C 20.5605 -1.7453 0.0 0
M  V30 14 O 16.8874 -4.4999 0.0 0
M  V30 15 N 15.5884 -2.25 0.0 0
M  V30 16 C 14.2894 -2.9999 0.0 0
M  V30 17 C 12.9903 -2.25 0.0 0
M  V30 18 C 14.2894 -4.4999 0.0 0
M  V30 19 O 11.6913 -3.0 0.0 0
M  V30 20 N 12.9903 -0.75 0.0 0
M  V30 21 C 12.9903 -5.2499 0.0 0
M  V30 22 C 11.6913 0.0 0.0 0
M  V30 23 C 12.9903 -6.75 0.0 0
M  V30 24 C 11.6913 -4.5 0.0 0
M  V30 25 C 10.3923 -0.75 0.0 0
M  V30 26 C 11.6913 1.5 0.0 0
M  V30 27 C 11.6913 -7.5 0.0 0
M  V30 28 C 10.3923 -5.25 0.0 0
M  V30 29 O 10.3923 -2.2499 0.0 0
M  V30 30 N 9.0932 0.0 0.0 0
M  V30 31 C 12.9903 2.25 0.0 0
M  V30 32 C 10.3923 -6.75 0.0 0
M  V30 33 C 9.0932 1.5 0.0 0
M  V30 34 C 12.9903 3.75 0.0 0
M  V30 35 C 14.2894 1.5 0.0 0
M  V30 36 C 7.7942 2.25 0.0 0
M  V30 37 C 10.3923 2.25 0.0 0
M  V30 38 C 14.2894 4.5 0.0 0
M  V30 39 C 15.5884 2.25 0.0 0
M  V30 40 O 6.4951 1.5 0.0 0
M  V30 41 N 7.7942 3.75 0.0 0
M  V30 42 C 10.3923 3.7499 0.0 0
M  V30 43 C 15.5884 3.75 0.0 0
M  V30 44 C 6.4951 4.5 0.0 0
M  V30 45 C 11.6913 4.4999 0.0 0
M  V30 46 C 9.0932 4.5 0.0 0
M  V30 47 C 6.4951 6.0 0.0 0
M  V30 48 C 5.1961 3.75 0.0 0
M  V30 49 C 11.6913 5.9999 0.0 0
M  V30 50 C 9.0932 6.0 0.0 0
M  V30 51 O 7.7942 6.75 0.0 0
M  V30 52 N 5.1961 6.75 0.0 0
M  V30 53 C 3.8971 4.5 0.0 0
M  V30 54 C 10.3923 6.75 0.0 0
M  V30 55 C 5.1961 8.25 0.0 0
M  V30 56 C 2.598 3.75 0.0 0
M  V30 57 C 3.8971 6.0 0.0 0
M  V30 58 C 1.299 4.5 0.0 0
M  V30 59 C 2.598 6.75 0.0 0
M  V30 60 C 1.299 6.0 0.0 0
M  V30 END ATOM
M  V30 BEGIN BOND
M  V30 1 2 1 2
M  V30 2 1 2 3
M  V30 3 1 2 4
M  V30 4 1 3 5
M  V30 5 1 4 6
M  V30 6 1 4 7
M  V30 7 1 5 8
M  V30 8 1 5 9
M  V30 9 1 5 10
M  V30 10 1 6 11
M  V30 11 1 6 12
M  V30 12 1 7 13
M  V30 13 2 11 14
M  V30 14 1 11 15
M  V30 15 1 15 16
M  V30 16 1 16 17
M  V30 17 1 16 18
M  V30 18 2 17 19
M  V30 19 1 17 20
M  V30 20 1 18 21
M  V30 21 1 20 22
M  V30 22 2 21 23
M  V30 23 1 21 24
M  V30 24 1 22 25
M  V30 25 1 22 26
M  V30 26 1 23 27
M  V30 27 2 24 28
M  V30 28 2 25 29
M  V30 29 1 25 30
M  V30 30 1 26 31
M  V30 31 2 27 32
M  V30 32 1 30 33
M  V30 33 2 31 34
M  V30 34 1 31 35
M  V30 35 1 33 36
M  V30 36 1 33 37
M  V30 37 1 34 38
M  V30 38 2 35 39
M  V30 39 2 36 40
M  V30 40 1 36 41
M  V30 41 1 37 42
M  V30 42 2 38 43
M  V30 43 1 41 44
M  V30 44 2 42 45
M  V30 45 1 42 46
M  V30 46 1 44 47
M  V30 47 1 44 48
M  V30 48 1 45 49
M  V30 49 2 46 50
M  V30 50 2 47 51
M  V30 51 1 47 52
M  V30 52 1 48 53
M  V30 53 2 49 54
M  V30 54 1 52 55
M  V30 55 2 53 56
M  V30 56 1 53 57
M  V30 57 1 56 58
M  V30 58 2 57 59
M  V30 59 2 58 60
M  V30 60 1 12 13
M  V30 61 1 28 32
M  V30 62 1 39 43
M  V30 63 1 50 54
M  V30 64 1 59 60
M  V30 END BOND
M  V30 END CTAB
M  END
>  <Name>
Compound3

>  <Mol>
CC(C)(C)NC(=O)C1CCCC1C(=O)NC(Cc1ccccc1)C(=O)NC(Cc1ccccc1)C(=O)NC(Cc1ccccc1)C(=O)NC(Cc1ccccc1)C(=O)NC

$$$$
Compound 4
Actelion Java MolfileCreator 2.0

  0  0  0  0  0  0              0 V3000
M  V30 BEGIN CTAB
M  V30 COUNTS 51 54 0 0 0
M  V30 BEGIN ATOM
M  V30 1 O 19.4855 0.0 0.0 0
M  V30 2 C 18.1865 -0.75 0.0 0
M  V30 3 N 16.8874 0.0 0.0 0
M  V30 4 C 18.1865 -2.25 0.0 0
M  V30 5 C 15.5884 -0.75 0.0 0
M  V30 6 C 16.8874 -3.0 0.0 0
M  V30 7 C 19.4855 -3.0 0.0 0
M  V30 8 C 14.2894 0.0 0.0 0
M  V30 9 C 15.5884 -2.25 0.0 0
M  V30 10 C 16.8874 -4.5 0.0 0
M  V30 11 C 19.4855 -4.5 0.0 0
M  V30 12 O 14.2894 1.5 0.0 0
M  V30 13 N 12.9903 -0.75 0.0 0
M  V30 14 C 14.2894 -2.9999 0.0 0
M  V30 15 C 18.1865 -5.25 0.0 0
M  V30 16 C 11.6913 0.0 0.0 0
M  V30 17 O 12.9903 -2.2499 0.0 0
M  V30 18 N 14.2894 -4.5 0.0 0
M  V30 19 C 10.3923 -0.75 0.0 0
M  V30 20 C 11.6913 1.5 0.0 0
M  V30 21 O 10.3923 -2.25 0.0 0
M  V30 22 N 9.0932 0.0 0.0 0
M  V30 23 C 10.3923 2.25 0.0 0
M  V30 24 C 7.7942 -0.75 0.0 0
M  V30 25 C 10.3923 3.75 0.0 0
M  V30 26 C 9.0932 1.5 0.0 0
M  V30 27 C 6.4951 0.0 0.0 0
M  V30 28 C 7.7942 -2.25 0.0 0
M  V30 29 C 9.0932 4.5 0.0 0
M  V30 30 C 7.7942 2.25 0.0 0
M  V30 31 O 6.4951 1.5 0.0 0
M  V30 32 N 5.1961 -0.75 0.0 0
M  V30 33 C 6.4951 -2.9999 0.0 0
M  V30 34 C 7.7942 3.75 0.0 0
M  V30 35 C 3.8971 0.0 0.0 0
M  V30 36 C 6.4951 -4.4999 0.0 0
M  V30 37 C 5.1961 -2.2499 0.0 0
M  V30 38 C 2.598 -0.75 0.0 0
M  V30 39 C 3.8971 1.5 0.0 0
M  V30 40 C 5.1961 -5.2499 0.0 0
M  V30 41 C 3.8971 -2.9999 0.0 0
M  V30 42 O 2.598 -2.25 0.0 0
M  V30 43 N 1.299 0.0 0.0 0
M  V30 44 C 2.598 2.25 0.0 0
M  V30 45 C 3.8971 -4.4999 0.0 0
M  V30 46 C 0.0 -0.75 0.0 0
M  V30 47 C 2.598 3.75 0.0 0
M  V30 48 C 1.299 1.5 0.0 0
M  V30 49 C 1.299 4.5 0.0 0
M  V30 50 C 0.0 2.25 0.0 0
M  V30 51 C 0.0 3.75 0.0 0
M  V30 END ATOM
M  V30 BEGIN BOND
M  V30 1 2 1 2
M  V30 2 1 2 3
M  V30 3 1 2 4
M  V30 4 1 3 5
M  V30 5 2 4 6
M  V30 6 1 4 7
M  V30 7 1 5 8
M  V30 8 1 5 9
M  V30 9 1 6 10
M  V30 10 2 7 11
M  V30 11 2 8 12
M  V30 12 1 8 13
M  V30 13 1 9 14
M  V30 14 2 10 15
M  V30 15 1 13 16
M  V30 16 2 14 17
M  V30 17 1 14 18
M  V30 18 1 16 19
M  V30 19 1 16 20
M  V30 20 2 19 21
M  V30 21 1 19 22
M  V30 22 1 20 23
M  V30 23 1 22 24
M  V30 24 2 23 25
M  V30 25 1 23 26
M  V30 26 1 24 27
M  V30 27 1 24 28
M  V30 28 1 25 29
M  V30 29 2 26 30
M  V30 30 2 27 31
M  V30 31 1 27 32
M  V30 32 1 28 33
M  V30 33 2 29 34
M  V30 34 1 32 35
M  V30 35 2 33 36
M  V30 36 1 33 37
M  V30 37 1 35 38
M  V30 38 1 35 39
M  V30 39 1 36 40
M  V30 40 2 37 41
M  V30 41 2 38 42
M  V30 42 1 38 43
M  V30 43 1 39 44
M  V30 44 2 40 45
M  V30 45 1 43 46
M  V30 46 2 44 47
M  V30 47 1 44 48
M  V30 48 1 47 49
M  V30 49 2 48 50
M  V30 50 2 49 51
M  V30 51 1 11 15
M  V30 52 1 30 34
M  V30 53 1 41 45
M  V30 54 1 50 51
M  V30 END BOND
M  V30 END CTAB
M  END
>  <Name>
Compound4

>  <Mol>
CNC(=O)C(Cc1ccccc1)NC(=O)C(Cc1ccccc1)NC(=O)C(Cc1ccccc1)NC(=O)C(CC(N)=O)NC(=O)c1ccccc1

$$$$
Compound 5
Actelion Java MolfileCreator 2.0

  0  0  0  0  0  0              0 V3000
M  V30 BEGIN CTAB
M  V30 COUNTS 33 36 0 0 0
M  V30 BEGIN ATOM
M  V30 1 S 3.8971 -3.0 0.0 0
M  V30 2 O 3.1471 -4.299 0.0 0
M  V30 3 O 4.6471 -4.299 0.0 0
M  V30 4 N 2.598 -2.25 0.0 0
M  V30 5 C 5.1961 -2.25 0.0 0
M  V30 6 C 1.299 -3.0 0.0 0
M  V30 7 C 5.1961 -0.75 0.0 0
M  V30 8 C 6.4951 -3.0 0.0 0
M  V30 9 C 3.8971 0.0 0.0 0
M  V30 10 C 6.4951 0.0 0.0 0
M  V30 11 C 7.7942 -2.25 0.0 0
M  V30 12 O 3.8971 1.5 0.0 0
M  V30 13 C 2.598 -0.75 0.0 0
M  V30 14 C 7.7942 -0.75 0.0 0
M  V30 15 C 1.299 0.0 0.0 0
M  V30 16 C 0.0 -0.75 0.0 0
M  V30 17 C -1.299 0.0 0.0 0
M  V30 18 C 0.0 -2.25 0.0 0
M  V30 19 N -1.299 1.5 0.0 0
M  V30 20 C -2.598 -0.75 0.0 0
M  V30 21 C -1.299 -3.0 0.0 0
M  V30 22 C -2.598 2.25 0.0 0
M  V30 23 C -2.598 -2.25 0.0 0
M  V30 24 O -3.8971 1.5 0.0 0
M  V30 25 O -2.598 3.75 0.0 0
M  V30 26 C -3.8971 4.5 0.0 0
M  V30 27 C -4.0539 5.9917 0.0 0
M  V30 28 C -5.2674 3.8898 0.0 0
M  V30 29 C -5.5211 6.3036 0.0 0
M  V30 30 C -3.3039 7.2908 0.0 0
M  V30 31 O -6.2711 5.0046 0.0 0
M  V30 32 O -5.6779 7.7954 0.0 0
M  V30 33 C -4.3076 8.4055 0.0 0
M  V30 END ATOM
M  V30 BEGIN BOND
M  V30 1 2 1 2
M  V30 2 2 1 3
M  V30 3 1 1 4
M  V30 4 1 1 5
M  V30 5 1 4 6
M  V30 6 2 5 7
M  V30 7 1 5 8
M  V30 8 1 7 9
M  V30 9 1 7 10
M  V30 10 2 8 11
M  V30 11 2 9 12
M  V30 12 1 9 13
M  V30 13 2 10 14
M  V30 14 1 13 15
M  V30 15 1 15 16
M  V30 16 2 16 17
M  V30 17 1 16 18
M  V30 18 1 17 19
M  V30 19 1 17 20
M  V30 20 2 18 21
M  V30 21 1 19 22
M  V30 22 2 20 23
M  V30 23 2 22 24
M  V30 24 1 22 25
M  V30 25 1 25 26
M  V30 26 1 26 27
M  V30 27 1 26 28
M  V30 28 1 27 29
M  V30 29 1 27 30
M  V30 30 1 28 31
M  V30 31 1 29 32
M  V30 32 1 30 33
M  V30 33 1 11 14
M  V30 34 1 21 23
M  V30 35 1 29 31
M  V30 36 1 32 33
M  V30 END BOND
M  V30 END CTAB
M  END
>  <Name>
Compound5

>  <Mol>
CNS(=O)(=O)c1ccccc1C(=O)CCc1ccccc1NC(=O)OC1COC2OCCC12

$$$$
Compound 6
Actelion Java MolfileCreator 2.0

  0  0  0  0  0  0              0 V3000
M  V30 BEGIN CTAB
M  V30 COUNTS 16 16 0 0 0
M  V30 BEGIN ATOM
M  V30 1 O 7.7942 -2.25 0.0 0
M  V30 2 C 7.7942 -0.75 0.0 0
M  V30 3 C 6.4951 0.0 0.0 0
M  V30 4 C 9.0932 0.0 0.0 0
M  V30 5 N 5.1961 -0.75 0.0 0
M  V30 6 C 10.3923 -0.75 0.0 0
M  V30 7 C 3.8971 0.0 0.0 0
M  V30 8 C 11.6913 0.0 0.0 0
M  V30 9 C 2.598 -0.75 0.0 0
M  V30 10 C 12.9903 -0.75 0.0 0
M  V30 11 C 11.6913 1.4999 0.0 0
M  V30 12 C 1.299 0.0 0.0 0
M  V30 13 C 14.2894 0.0 0.0 0
M  V30 14 C 12.9903 2.2499 0.0 0
M  V30 15 C 0.0 -0.75 0.0 0
M  V30 16 C 14.2894 1.4999 0.0 0
M  V30 END ATOM
M  V30 BEGIN BOND
M  V30 1 2 1 2
M  V30 2 1 2 3
M  V30 3 1 2 4
M  V30 4 1 3 5
M  V30 5 1 4 6
M  V30 6 1 5 7
M  V30 7 1 6 8
M  V30 8 1 7 9
M  V30 9 2 8 10
M  V30 10 1 8 11
M  V30 11 1 9 12
M  V30 12 1 10 13
M  V30 13 2 11 14
M  V30 14 1 12 15
M  V30 15 2 13 16
M  V30 16 1 14 16
M  V30 END BOND
M  V30 END CTAB
M  END
>  <Name>
Compound6

>  <Mol>
CCCCNCC(=O)CCc1ccccc1

$$$$
Compound 7
Actelion Java MolfileCreator 2.0

  0  0  0  0  0  0              0 V3000
M  V30 BEGIN CTAB
M  V30 COUNTS 56 60 0 0 0
M  V30 BEGIN ATOM
M  V30 1 O 2.598 0.9999 0.0 0
M  V30 2 C 3.4641 1.4999 0.0 0
M  V30 3 N 3.4641 2.5 0.0 0
M  V30 4 C 4.3301 0.9999 0.0 0
M  V30 5 C 4.3301 3.0 0.0 0
M  V30 6 C 4.3301 0.0 0.0 0
M  V30 7 C 5.1961 1.5 0.0 0
M  V30 8 C 4.3301 4.0 0.0 0
M  V30 9 C 5.1961 -0.4999 0.0 0
M  V30 10 C 3.4641 -0.5 0.0 0
M  V30 11 C 6.0621 1.0 0.0 0
M  V30 12 C 5.1961 4.5 0.0 0
M  V30 13 C 6.0621 0.0 0.0 0
M  V30 14 C 2.598 0.0 0.0 0
M  V30 15 C 6.0621 3.9999 0.0 0
M  V30 16 C 5.1961 5.5 0.0 0
M  V30 17 N 1.732 -0.5 0.0 0
M  V30 18 C 6.0621 2.9999 0.0 0
M  V30 19 C 6.9282 4.4999 0.0 0
M  V30 20 C 6.0621 5.9999 0.0 0
M  V30 21 C 0.866 0.0 0.0 0
M  V30 22 O 5.1961 2.5 0.0 0
M  V30 23 N 6.9282 2.4999 0.0 0
M  V30 24 C 6.9282 5.4999 0.0 0
M  V30 25 O 0.866 1.0 0.0 0
M  V30 26 C 0.0 -0.5 0.0 0
M  V30 27 C 6.9282 1.4999 0.0 0
M  V30 28 C 0.0 -1.5 0.0 0
M  V30 29 C -0.866 0.0 0.0 0
M  V30 30 C 7.7942 0.9999 0.0 0
M  V30 31 C -0.866 -2.0 0.0 0
M  V30 32 C 0.866 -1.9999 0.0 0
M  V30 33 C -1.732 -0.5 0.0 0
M  V30 34 C 7.7942 0.0 0.0 0
M  V30 35 C -1.732 -1.5 0.0 0
M  V30 36 C 1.732 -1.4999 0.0 0
M  V30 37 C 8.6602 -0.5 0.0 0
M  V30 38 C 6.9282 -0.5 0.0 0
M  V30 39 C 2.598 -1.9999 0.0 0
M  V30 40 C 8.6602 -1.5 0.0 0
M  V30 41 C 9.5262 0.0 0.0 0
M  V30 42 C 6.9282 -1.5 0.0 0
M  V30 43 O 2.598 -2.9999 0.0 0
M  V30 44 N 3.4641 -1.4999 0.0 0
M  V30 45 C 7.7942 -2.0 0.0 0
M  V30 46 O 10.3923 -0.5 0.0 0
M  V30 47 C 4.3301 -1.9999 0.0 0
M  V30 48 C 4.3301 -3.0 0.0 0
M  V30 49 C 5.1961 -1.4999 0.0 0
M  V30 50 C 5.1961 -3.5 0.0 0
M  V30 51 C 3.4641 -3.5 0.0 0
M  V30 52 C 6.0621 -1.9999 0.0 0
M  V30 53 C 6.0621 -2.9999 0.0 0
M  V30 54 C 3.4641 -4.5 0.0 0
M  V30 55 C 2.598 -4.9999 0.0 0
M  V30 56 O 2.598 -5.9999 0.0 0
M  V30 END ATOM
M  V30 BEGIN BOND
M  V30 1 2 1 2
M  V30 2 1 2 3
M  V30 3 1 2 4
M  V30 4 1 3 5
M  V30 5 2 4 6
M  V30 6 1 4 7
M  V30 7 1 5 8
M  V30 8 1 6 9
M  V30 9 1 6 10
M  V30 10 2 7 11
M  V30 11 1 8 12
M  V30 12 2 9 13
M  V30 13 1 10 14
M  V30 14 2 12 15
M  V30 15 1 12 16
M  V30 16 1 14 17
M  V30 17 1 15 18
M  V30 18 1 15 19
M  V30 19 2 16 20
M  V30 20 1 17 21
M  V30 21 2 18 22
M  V30 22 1 18 23
M  V30 23 2 19 24
M  V30 24 2 21 25
M  V30 25 1 21 26
M  V30 26 1 23 27
M  V30 27 2 26 28
M  V30 28 1 26 29
M  V30 29 1 27 30
M  V30 30 1 28 31
M  V30 31 1 28 32
M  V30 32 2 29 33
M  V30 33 1 30 34
M  V30 34 2 31 35
M  V30 35 1 32 36
M  V30 36 2 34 37
M  V30 37 1 34 38
M  V30 38 1 36 39
M  V30 39 1 37 40
M  V30 40 1 37 41
M  V30 41 2 38 42
M  V30 42 2 39 43
M  V30 43 1 39 44
M  V30 44 2 40 45
M  V30 45 2 41 46
M  V30 46 1 44 47
M  V30 47 2 47 48
M  V30 48 1 47 49
M  V30 49 1 48 50
M  V30 50 1 48 51
M  V30 51 2 49 52
M  V30 52 2 50 53
M  V30 53 1 51 54
M  V30 54 1 54 55
M  V30 55 2 55 56
M  V30 56 1 11 13
M  V30 57 1 20 24
M  V30 58 1 33 35
M  V30 59 1 42 45
M  V30 60 1 52 53
M  V30 END BOND
M  V30 END CTAB
M  END
>  <Name>
Compound7

>  <Mol>
C(=O)CCc1ccccc1NC(=O)CCc1ccccc1C(=O)NCCc1ccccc1C(=O)NCCc1ccccc1C(=O)NCCc1ccccc1C(=O)

$$$$
Compound 8
Actelion Java MolfileCreator 2.0

  0  0  0  0  0  0              0 V3000
M  V30 BEGIN CTAB
M  V30 COUNTS 17 16 0 0 0
M  V30 BEGIN ATOM
M  V30 1 O 11.6913 1.5 0.0 0
M  V30 2 C 11.6913 0.0 0.0 0
M  V30 3 N 10.3923 -0.75 0.0 0
M  V30 4 C 12.9903 -0.75 0.0 0
M  V30 5 C 9.0932 0.0 0.0 0
M  V30 6 C 14.2894 0.0 0.0 0
M  V30 7 C 7.7942 -0.75 0.0 0
M  V30 8 C 15.5884 -0.75 0.0 0
M  V30 9 C 6.4951 0.0 0.0 0
M  V30 10 C 16.8874 0.0 0.0 0
M  V30 11 C 5.1961 -0.75 0.0 0
M  V30 12 C 18.1865 -0.75 0.0 0
M  V30 13 C 3.8971 0.0 0.0 0
M  V30 14 O 19.4855 0.0 0.0 0
M  V30 15 C 2.598 -0.75 0.0 0
M  V30 16 C 1.299 0.0 0.0 0
M  V30 17 C 0.0 -0.75 0.0 0
M  V30 END ATOM
M  V30 BEGIN BOND
M  V30 1 2 1 2
M  V30 2 1 2 3
M  V30 3 1 2 4
M  V30 4 1 3 5
M  V30 5 1 4 6
M  V30 6 1 5 7
M  V30 7 1 6 8
M  V30 8 1 7 9
M  V30 9 1 8 10
M  V30 10 1 9 11
M  V30 11 1 10 12
M  V30 12 1 11 13
M  V30 13 2 12 14
M  V30 14 1 13 15
M  V30 15 1 15 16
M  V30 16 1 16 17
M  V30 END BOND
M  V30 END CTAB
M  END
>  <Name>
Compound8

>  <Mol>
CCCCCCCCNC(=O)CCCCC(=O)

$$$$
Compound 9
Actelion Java MolfileCreator 2.0

  0  0  0  0  0  0              0 V3000
M  V30 BEGIN CTAB
M  V30 COUNTS 17 19 0 0 0
M  V30 BEGIN ATOM
M  V30 1 P 1.9594 1.6636 0.0 0
M  V30 2 C 2.7026 0.9945 0.0 0
M  V30 3 C 2.598 0.0 0.0 0
M  V30 4 C 3.6807 1.2024 0.0 0
M  V30 5 C 1.732 -0.5 0.0 0
M  V30 6 C 3.5116 -0.4067 0.0 0
M  V30 7 C 4.1807 0.3364 0.0 0
M  V30 8 O 1.732 -1.5 0.0 0
M  V30 9 O 0.866 0.0 0.0 0
M  V30 10 C 0.0 -0.5 0.0 0
M  V30 11 C -0.9135 -0.0932 0.0 0
M  V30 12 C -0.1045 -1.4945 0.0 0
M  V30 13 C -1.5826 -0.8364 0.0 0
M  V30 14 C -1.4135 0.7727 0.0 0
M  V30 15 O -1.0826 -1.7024 0.0 0
M  V30 16 O -2.4962 -0.4296 0.0 0
M  V30 17 C -2.3916 0.5648 0.0 0
M  V30 END ATOM
M  V30 BEGIN BOND
M  V30 1 1 1 2
M  V30 2 1 2 3
M  V30 3 1 2 4
M  V30 4 1 3 5
M  V30 5 1 3 6
M  V30 6 1 4 7
M  V30 7 2 5 8
M  V30 8 1 5 9
M  V30 9 1 9 10
M  V30 10 1 10 11
M  V30 11 1 10 12
M  V30 12 1 11 13
M  V30 13 1 11 14
M  V30 14 1 12 15
M  V30 15 1 13 16
M  V30 16 1 14 17
M  V30 17 1 6 7
M  V30 18 1 13 15
M  V30 19 1 16 17
M  V30 END BOND
M  V30 END CTAB
M  END
>  <Name>
Compound9

>  <Mol>
PC1CCCC1C(=O)OC1COC2OCCC12

$$$$
Compound 10
Actelion Java MolfileCreator 2.0

  0  0  0  0  0  0              0 V3000
M  V30 BEGIN CTAB
M  V30 COUNTS 42 45 0 0 0
M  V30 BEGIN ATOM
M  V30 1 O 5.1961 3.7499 0.0 0
M  V30 2 C 5.1961 2.2499 0.0 0
M  V30 3 N 3.8971 1.4999 0.0 0
M  V30 4 C 6.4951 1.4999 0.0 0
M  V30 5 C 3.8971 0.0 0.0 0
M  V30 6 C 7.7942 2.25 0.0 0
M  V30 7 C 6.4951 0.0 0.0 0
M  V30 8 C 2.598 -0.75 0.0 0
M  V30 9 C 9.0932 1.5 0.0 0
M  V30 10 C 7.7942 3.75 0.0 0
M  V30 11 C 7.7942 -0.7499 0.0 0
M  V30 12 C 2.598 -2.25 0.0 0
M  V30 13 C 9.0932 0.0 0.0 0
M  V30 14 C 6.4951 4.5 0.0 0
M  V30 15 C 1.299 -3.0 0.0 0
M  V30 16 C 3.8971 -3.0 0.0 0
M  V30 17 N 6.4951 6.0 0.0 0
M  V30 18 C 0.0 -2.25 0.0 0
M  V30 19 C 1.299 -4.5 0.0 0
M  V30 20 C 3.8971 -4.5 0.0 0
M  V30 21 C 5.1961 6.7499 0.0 0
M  V30 22 O -1.299 -3.0 0.0 0
M  V30 23 N 0.0 -0.75 0.0 0
M  V30 24 C 2.598 -5.25 0.0 0
M  V30 25 O 3.8971 5.9999 0.0 0
M  V30 26 C 5.1961 8.2499 0.0 0
M  V30 27 C -1.299 0.0 0.0 0
M  V30 28 C 3.8971 8.9999 0.0 0
M  V30 29 C 6.4951 9.0 0.0 0
M  V30 30 C -1.299 1.4999 0.0 0
M  V30 31 C 3.8971 10.4999 0.0 0
M  V30 32 C 2.598 8.2499 0.0 0
M  V30 33 C 6.4951 10.5 0.0 0
M  V30 34 C -2.598 2.25 0.0 0
M  V30 35 C 5.1961 11.2499 0.0 0
M  V30 36 C -2.598 3.7499 0.0 0
M  V30 37 C -3.8971 1.5 0.0 0
M  V30 38 C -3.8971 4.4999 0.0 0
M  V30 39 C -1.299 4.4999 0.0 0
M  V30 40 C -5.1961 2.25 0.0 0
M  V30 41 C -5.1961 3.75 0.0 0
M  V30 42 O -1.299 5.9999 0.0 0
M  V30 END ATOM
M  V30 BEGIN BOND
M  V30 1 2 1 2
M  V30 2 1 2 3
M  V30 3 1 2 4
M  V30 4 1 3 5
M  V30 5 2 4 6
M  V30 6 1 4 7
M  V30 7 1 5 8
M  V30 8 1 6 9
M  V30 9 1 6 10
M  V30 10 2 7 11
M  V30 11 1 8 12
M  V30 12 2 9 13
M  V30 13 1 10 14
M  V30 14 2 12 15
M  V30 15 1 12 16
M  V30 16 1 14 17
M  V30 17 1 15 18
M  V30 18 1 15 19
M  V30 19 2 16 20
M  V30 20 1 17 21
M  V30 21 2 18 22
M  V30 22 1 18 23
M  V30 23 2 19 24
M  V30 24 2 21 25
M  V30 25 1 21 26
M  V30 26 1 23 27
M  V30 27 2 26 28
M  V30 28 1 26 29
M  V30 29 1 27 30
M  V30 30 1 28 31
M  V30 31 1 28 32
M  V30 32 2 29 33
M  V30 33 1 30 34
M  V30 34 2 31 35
M  V30 35 2 34 36
M  V30 36 1 34 37
M  V30 37 1 36 38
M  V30 38 1 36 39
M  V30 39 2 37 40
M  V30 40 2 38 41
M  V30 41 2 39 42
M  V30 42 1 11 13
M  V30 43 1 20 24
M  V30 44 1 33 35
M  V30 45 1 40 41
M  V30 END BOND
M  V30 END CTAB
M  END
>  <Name>
Compound10

>  <Mol>
Cc1ccccc1C(=O)NCCc1ccccc1C(=O)NCCc1ccccc1C(=O)NCCc1ccccc1C(=O)

$$$$
